bvnexus_integration_v2/sample_files/PSSe/bvNexus_Network.raw
0,   100.00     / PSS/E-35    Fri, Dec 27 2024  12:00
Dallas Hyperscale DC - Power Flow Base Case
Behind-the-Meter Datacenter Generation System

/ BUS DATA
/ I, 'NAME', BASKV, IDE, AREA, ZONE, OWNER, VM, VA, NVHI, NVLO, EVHI, EVLO
100,'RECIP_01',  13.800,1,   1,   1,   1,1.01000,   0.0000,1.10000,0.90000,1.10000,0.90000
101,'RECIP_02',  13.800,1,   1,   1,   1,1.01000,   0.0000,1.10000,0.90000,1.10000,0.90000
102,'RECIP_03',  13.800,1,   1,   1,   1,1.01000,   0.0000,1.10000,0.90000,1.10000,0.90000
103,'RECIP_04',  13.800,1,   1,   1,   1,1.01000,   0.0000,1.10000,0.90000,1.10000,0.90000
104,'RECIP_05',  13.800,1,   1,   1,   1,1.01000,   0.0000,1.10000,0.90000,1.10000,0.90000
105,'RECIP_06',  13.800,1,   1,   1,   1,1.01000,   0.0000,1.10000,0.90000,1.10000,0.90000
106,'RECIP_07',  13.800,1,   1,   1,   1,1.01000,   0.0000,1.10000,0.90000,1.10000,0.90000
107,'RECIP_08',  13.800,1,   1,   1,   1,1.01000,   0.0000,1.10000,0.90000,1.10000,0.90000
120,'GT_01   ',  13.800,1,   1,   1,   1,1.02500,   0.0000,1.10000,0.90000,1.10000,0.90000
121,'GT_02   ',  13.800,1,   1,   1,   1,1.02500,   0.0000,1.10000,0.90000,1.10000,0.90000
140,'BESS_01 ',  13.800,1,   1,   1,   1,1.00500,   0.0000,1.10000,0.90000,1.10000,0.90000
200,'MAIN_BUS',  13.800,3,   1,   1,   1,1.00000,   0.0000,1.10000,0.90000,1.10000,0.90000
0 / END OF BUS DATA

/ LOAD DATA
/ I, ID, STATUS, AREA, ZONE, PL, QL, IP, IQ, YP, YQ, OWNER, SCALE, INTRPT, DESSION
200,'1 ',1,   1,   1,   200.00,    66.00,   0.00,   0.00,   0.00,   0.00,   1,1,0,1
0 / END OF LOAD DATA

/ FIXED SHUNT DATA
0 / END OF FIXED SHUNT DATA

/ GENERATOR DATA
/ I, ID, PG, QG, QT, QB, VS, IREG, MBASE, ZR, ZX, RT, XT, GTAP, STAT, RMPCT, PT, PB
100,'1 ',   18.30,    0.00,  10.75, -6.45,1.0100,     0,  21.53, 0.00000, 1.00000, 0.00000, 0.00000,1.00000,1,  100.0,  18.30,    0.00,1,1.0000,0,1.0000,0,1.0000,0,1.0000,0
101,'1 ',   18.30,    0.00,  10.75, -6.45,1.0100,     0,  21.53, 0.00000, 1.00000, 0.00000, 0.00000,1.00000,1,  100.0,  18.30,    0.00,1,1.0000,0,1.0000,0,1.0000,0,1.0000,0
102,'1 ',   18.30,    0.00,  10.75, -6.45,1.0100,     0,  21.53, 0.00000, 1.00000, 0.00000, 0.00000,1.00000,1,  100.0,  18.30,    0.00,1,1.0000,0,1.0000,0,1.0000,0,1.0000,0
103,'1 ',   18.30,    0.00,  10.75, -6.45,1.0100,     0,  21.53, 0.00000, 1.00000, 0.00000, 0.00000,1.00000,1,  100.0,  18.30,    0.00,1,1.0000,0,1.0000,0,1.0000,0,1.0000,0
104,'1 ',   18.30,    0.00,  10.75, -6.45,1.0100,     0,  21.53, 0.00000, 1.00000, 0.00000, 0.00000,1.00000,1,  100.0,  18.30,    0.00,1,1.0000,0,1.0000,0,1.0000,0,1.0000,0
105,'1 ',   18.30,    0.00,  10.75, -6.45,1.0100,     0,  21.53, 0.00000, 1.00000, 0.00000, 0.00000,1.00000,1,  100.0,  18.30,    0.00,1,1.0000,0,1.0000,0,1.0000,0,1.0000,0
106,'1 ',   18.30,    0.00,  10.75, -6.45,1.0100,     0,  21.53, 0.00000, 1.00000, 0.00000, 0.00000,1.00000,1,  100.0,  18.30,    0.00,1,1.0000,0,1.0000,0,1.0000,0,1.0000,0
107,'1 ',   18.30,    0.00,  10.75, -6.45,1.0100,     0,  21.53, 0.00000, 1.00000, 0.00000, 0.00000,1.00000,1,  100.0,  18.30,    0.00,1,1.0000,0,1.0000,0,1.0000,0,1.0000,0
120,'1 ',   50.00,    0.00,  29.41,-17.65,1.0250,     0,  58.82, 0.00000, 1.00000, 0.00000, 0.00000,1.00000,1,  100.0,  50.00,    0.00,1,1.0000,0,1.0000,0,1.0000,0,1.0000,0
121,'1 ',   50.00,    0.00,  29.41,-17.65,1.0250,     0,  58.82, 0.00000, 1.00000, 0.00000, 0.00000,1.00000,1,  100.0,  50.00,    0.00,1,1.0000,0,1.0000,0,1.0000,0,1.0000,0
0 / END OF GENERATOR DATA

/ BRANCH DATA
/ I, J, CKT, R, X, B, RATEA, RATEB, RATEC, GI, BI, GJ, BJ, ST, MET, LEN, O1, F1
100,  200,'1 ', 0.00100, 0.01000, 0.00000,  100.0,  100.0,  100.0, 0.00000, 0.00000, 0.00000, 0.00000,1,1,   0.10,1,1.0000
101,  200,'1 ', 0.00100, 0.01000, 0.00000,  100.0,  100.0,  100.0, 0.00000, 0.00000, 0.00000, 0.00000,1,1,   0.10,1,1.0000
102,  200,'1 ', 0.00100, 0.01000, 0.00000,  100.0,  100.0,  100.0, 0.00000, 0.00000, 0.00000, 0.00000,1,1,   0.10,1,1.0000
103,  200,'1 ', 0.00100, 0.01000, 0.00000,  100.0,  100.0,  100.0, 0.00000, 0.00000, 0.00000, 0.00000,1,1,   0.10,1,1.0000
104,  200,'1 ', 0.00100, 0.01000, 0.00000,  100.0,  100.0,  100.0, 0.00000, 0.00000, 0.00000, 0.00000,1,1,   0.10,1,1.0000
105,  200,'1 ', 0.00100, 0.01000, 0.00000,  100.0,  100.0,  100.0, 0.00000, 0.00000, 0.00000, 0.00000,1,1,   0.10,1,1.0000
106,  200,'1 ', 0.00100, 0.01000, 0.00000,  100.0,  100.0,  100.0, 0.00000, 0.00000, 0.00000, 0.00000,1,1,   0.10,1,1.0000
107,  200,'1 ', 0.00100, 0.01000, 0.00000,  100.0,  100.0,  100.0, 0.00000, 0.00000, 0.00000, 0.00000,1,1,   0.10,1,1.0000
120,  200,'1 ', 0.00050, 0.00800, 0.00000,  150.0,  150.0,  150.0, 0.00000, 0.00000, 0.00000, 0.00000,1,1,   0.05,1,1.0000
121,  200,'1 ', 0.00050, 0.00800, 0.00000,  150.0,  150.0,  150.0, 0.00000, 0.00000, 0.00000, 0.00000,1,1,   0.05,1,1.0000
140,  200,'1 ', 0.00200, 0.01500, 0.00000,   50.0,   50.0,   50.0, 0.00000, 0.00000, 0.00000, 0.00000,1,1,   0.02,1,1.0000
0 / END OF BRANCH DATA

/ SYSTEM SWITCHING DEVICE DATA
0 / END OF SYSTEM SWITCHING DEVICE DATA

/ TRANSFORMER DATA
0 / END OF TRANSFORMER DATA

/ AREA DATA
   1,  200,   0.000,   10.00,'DATACENTER'
0 / END OF AREA DATA

/ TWO-TERMINAL DC DATA
0 / END OF TWO-TERMINAL DC DATA

/ VSC DC LINE DATA
0 / END OF VSC DC LINE DATA

/ SWITCHED SHUNT DATA
0 / END OF SWITCHED SHUNT DATA

/ IMPEDANCE CORRECTION DATA
0 / END OF IMPEDANCE CORRECTION DATA

/ MULTI-TERMINAL DC DATA
0 / END OF MULTI-TERMINAL DC DATA

/ MULTI-SECTION LINE DATA
0 / END OF MULTI-SECTION LINE DATA

/ ZONE DATA
   1,'ZONE_1'
0 / END OF ZONE DATA

/ INTER-AREA TRANSFER DATA
0 / END OF INTER-AREA TRANSFER DATA

/ OWNER DATA
   1,'OWNER_1'
0 / END OF OWNER DATA

/ FACTS DEVICE DATA
0 / END OF FACTS DEVICE DATA

Q
